22
Energy:      10.4507133
C        -1.20847000      2.06088000      0.00000000
C        -1.18770000      0.66348000      0.00000000
N         0.00000000      0.00000000      0.00000000
C         1.18770000      0.66347000      0.00000000
C         1.20847000      2.06088000      0.00000000
C         0.00000000      2.76139000      0.00000000
H         0.00000000      3.84372000      0.00000000
H        -2.15024000      2.59423000      0.00000000
H        -2.11521000      0.10669000      0.00000000
H         2.11521000      0.10669000      0.00000000
H         2.15024000      2.59423000      0.00000000
C        -2.30189000     -2.51586000      2.35639000
C        -2.64182000     -3.20586000      3.52324000
C        -3.96161000     -0.87557000      2.80055000
C        -3.66387000     -2.71006000      4.33608000
C        -4.33057000     -1.53687000      3.97516000
P        -2.96346000     -1.37493000      2.02262000
H        -5.12388000     -1.14442000      4.59809000
H        -3.93840000     -3.23337000      5.24285000
H        -4.46845000      0.03412000      2.50751000
H        -1.51260000     -2.88714000      1.71650000
H        -2.11908000     -4.11406000      3.79398000
