     555
 i =    15001, time =     7500.500, E =     -2006.8342977331
  C        13.4071383828        6.9794780743       10.0302326893
  C        12.7989625392        7.2155460892        8.7932011186
  C        13.3356203564        7.8590056739       11.1092458392
  C        12.5437813023        9.0499660083       10.8042655639
  C        11.8802401571        9.2968672943        9.6084222531
  C        11.9772509351        8.3031095123        8.5771992845
  H        11.4516152461        8.4705171774        7.6383787803
  H        13.0124783868        6.4116123222        8.0536678570
  H        14.0681328042        6.1458856308       10.1672609566
  H        12.4185064156        9.7851954437       11.6337947385
  H        11.3165293075       10.2250170171        9.3783440719
  C        14.1540737383        7.6700560576       12.3915335198
  H        13.7137776628        7.0066238427       13.1404757452
  H        14.2957125504        8.6688658710       12.8507222565
  H        15.0879724625        7.3101921155       12.1014968327
  C        19.4869028610        5.0063691690        4.4291358964
  C        20.3817254706        5.9994023096        4.0405121956
  C        18.1174413237        5.2363775114        4.2277807489
  C        17.6730118750        6.4005026325        3.5911650184
  C        18.6122681094        7.3222102004        3.1064308248
  C        19.9977104394        7.1206469522        3.3117478876
  H        20.8223372421        7.7853536181        2.9642558862
  H        21.4363530806        5.8447988300        4.2035074816
  H        19.7592836363        4.1938222439        5.0712779129
  H        16.6208476776        6.6893657486        3.4347539814
  H        18.2857182112        8.1561387815        2.5562965919
  C        17.0362075601        4.2930922529        4.8882492174
  H        17.2280474201        4.1427199312        5.9670133875
  H        17.0210103837        3.2758229305        4.5221928782
  H        16.1182773771        4.8648756845        4.8114572170
  C         7.5222866888        6.4980447138       13.7617886579
  C         8.7057339278        7.0662831141       14.3251551104
  C         7.4561360427        5.9517753800       12.5071090289
  C         8.6162870708        6.0815051179       11.7282659150
  C         9.7829536377        6.6785336730       12.1635937284
  C         9.8490464560        7.1289519186       13.5122446034
  H        10.7290146975        7.7741096235       13.7177350042
  H         8.6682794766        7.6480274333       15.2488408718
  H         6.5322666241        6.5468109080       14.3346461480
  H         8.5244842225        5.6401587636       10.6611719265
  H        10.5940506016        6.8954777397       11.4954890652
  C         6.1274789871        5.6909754767       11.8329729028
  H         5.6869318305        6.6388104221       11.6100721560
  H         5.4719603117        5.0126324173       12.4293663361
  H         6.3307914637        5.2008413295       10.8605886963
  C        19.3984520038        2.8407235622       12.5927038990
  C        20.1622610069        3.7593446371       13.3271020073
  C        18.0424394630        3.1332953881       12.2419412925
  C        17.4550644587        4.3436029463       12.7597316357
  C        18.2528191068        5.2362647350       13.5121754885
  C        19.6196249706        4.9807066394       13.7412085902
  H        20.1613695690        5.7367755295       14.3234116361
  H        21.2548253098        3.5954794238       13.4554993601
  H        19.9587794483        2.0191653341       12.0821148049
  H        16.4355195383        4.5466904131       12.5349967998
  H        17.8208476815        6.0418385896       14.0487446326
  C        17.1163892884        2.2393580827       11.4241687289
  H        16.7973931050        1.3204166460       11.8978269986
  H        17.6090765354        1.9525969860       10.4873114284
  H        16.2018420747        2.8385576177       11.1087818670
  C        21.9240236812       14.5564493444       -2.8610453367
  C        20.5992046052       14.0925827674       -2.8192038394
  C        22.2398315264       15.9095522256       -2.9061012124
  C        21.1469932339       16.7789745478       -2.9432441014
  C        19.8438592556       16.3385542441       -2.8903136681
  C        19.5403581472       14.9995113706       -2.8004039338
  H        18.5056947563       14.6312375610       -2.7857957083
  H        20.4190411921       13.0261035644       -2.6644263566
  H        22.6546676433       13.8128292150       -2.7709300828
  H        21.4696071094       17.8210627409       -3.0791933793
  H        18.8682147962       16.9058647965       -2.9333831956
  C        23.6959589374       16.3821109419       -2.7794751097
  H        23.8477654061       17.4795996474       -2.9578292494
  H        24.3521613149       15.8499869565       -3.4466960069
  H        24.0399230419       16.2167840317       -1.7399785940
  C        -0.2446940433        7.3319347872       16.7672379618
  C         0.9914350454        8.0337454797       16.5814310270
  C        -1.0184303961        7.5781744963       17.9298670827
  C        -0.4605188233        8.4461131065       18.8965152572
  C         0.7078905666        9.2222051991       18.6765310814
  C         1.4201945452        8.9970451334       17.4658092254
  H         2.3487138188        9.5784932423       17.2664374810
  H         1.6434430431        7.7755319246       15.7689070199
  H        -0.6189238586        6.6038733357       16.0813369625
  H        -1.0455378293        8.6405921444       19.8127102253
  H         1.0626403613        9.9382110564       19.3833382036
  C        -2.4298062747        7.0238483626       18.0867789624
  H        -2.7146454179        6.1728912507       17.3614791888
  H        -3.0914056923        7.8860668131       18.0426031879
  H        -2.5613143682        6.5209790490       19.0482934287
  C        13.3189332299       16.4184962870        7.1838108717
  C        13.4349088055       17.6268485355        7.9516394025
  C        14.4508072601       15.6671208292        6.8045697126
  C        15.7116909252       16.1349686570        7.2124436992
  C        15.8872412771       17.3239779282        7.9876185515
  C        14.7537062356       18.0720374555        8.2988045194
  H        14.8399695855       19.0263230814        8.8187228717
  H        12.5902510852       18.2751447317        8.1526073409
  H        12.3986081019       16.0931320119        6.7836080927
  H        16.5816580629       15.4859090800        7.0476023907
  H        16.8392639767       17.8627324949        8.0804093850
  C        14.2402151415       14.4824147116        5.9158016469
  H        13.1197195742       14.3742718223        5.6635024806
  H        14.5819491241       13.5926874181        6.4631306322
  H        14.8320672709       14.5296770751        5.0080884182
  C        10.8249054885       12.2725580742       15.9778599075
  C         9.6301946767       12.3273055570       16.6920999869
  C        11.6444822329       11.1508481351       15.7188090409
  C        11.1901222093        9.9190495444       16.2486410708
  C         9.9721536699        9.9307450608       17.0466639478
  C         9.1981000727       11.0830429523       17.2059260117
  H         8.3115503456       11.0442973720       17.8942156984
  H         8.9846964710       13.1277052565       16.8231321756
  H        11.2162334389       13.1987594306       15.6091656914
  H        11.6713392663        8.9644756365       15.9531729040
  H         9.6186283091        8.9715699977       17.4332858922
  C        12.8474957734       11.2951849219       14.8864456634
  H        12.5986020866       11.6912853115       13.9096677562
  H        13.3538029949       10.3636079838       14.7059224143
  H        13.4103997019       12.0587483203       15.4219017231
  C        10.8839880262        2.2347631950       21.7950422903
  C        11.2009023966        1.6883240241       20.5124414087
  C         9.5466433165        2.3055858873       22.1863328116
  C         8.5842047097        1.9906428282       21.1747329093
  C         8.9184640026        1.5446645685       19.9062413038
  C        10.2411038537        1.2374209496       19.5991009420
  H        10.5201373090        0.9149189391       18.6275080581
  H        12.2806461413        1.6003744100       20.2158155806
  H        11.7116562073        2.4817423469       22.4944120372
  H         7.6065965437        1.8208104657       21.5213598503
  H         8.1434159656        1.1590145353       19.1554999668
  C         9.0155650748        2.6525003403       23.5304988499
  H         7.9425363233        2.9558992185       23.6122484675
  H         9.5080287572        3.5074388295       23.9940744758
  H         9.2098588140        1.8786377932       24.2902652913
  C        17.1990081404       10.5998957790       21.0901936328
  C        18.4181020077       11.3252437749       20.8947813670
  C        16.1975995857       10.4805779736       20.1080363537
  C        16.4904949082       11.0559565125       18.8765659844
  C        17.7248566823       11.6715980156       18.6169024999
  C        18.6757579162       11.7688114237       19.6132764541
  H        19.5601789681       12.3318848638       19.3206638627
  H        19.1442310808       11.4360051007       21.7411099800
  H        17.0460068747       10.1473292084       22.0810012006
  H        15.8240932463       10.9946931746       17.9882168184
  H        18.0391581468       12.0518837589       17.5970812727
  C        14.8503146038        9.7573132332       20.3832066975
  H        15.0048202970        8.6440049409       20.4998949252
  H        14.2099825057        9.9230371485       19.4677876302
  H        14.3129959605       10.2247656630       21.2200843751
  C        14.9060527986       -4.3830550398        2.4080728989
  C        14.9731655485       -5.5200295119        1.5619743877
  C        15.9252459336       -3.4211686390        2.3643218248
  C        17.0551671235       -3.6457881825        1.5085742454
  C        17.1348414388       -4.8267861353        0.7386729382
  C        16.0719585042       -5.7645893710        0.7354329341
  H        16.1278215055       -6.6955478466        0.1103086788
  H        14.1817064044       -6.3049046759        1.7040924571
  H        14.1570267976       -4.2466938012        3.2594878905
  H        17.9191829515       -2.9496192429        1.4483126301
  H        17.9922791501       -5.1067609342        0.1071702926
  C        15.9201748212       -2.2602538916        3.3381197434
  H        15.2853396234       -2.3841509088        4.2267568767
  H        15.6521910556       -1.3692859751        2.7628418610
  H        16.9361195222       -1.9978432622        3.6110060265
  C         6.7550955271       17.8798371355       19.0632437043
  C         6.8271610479       18.4959376535       17.8135914062
  C         7.2393636690       16.6000623828       19.2294978736
  C         7.5775926845       15.8425654106       18.1068485216
  C         7.7133294048       16.4102039739       16.8724650107
  C         7.3635227758       17.7697082235       16.7841502650
  H         7.5442507742       18.2825730046       15.7773500095
  H         6.3135861784       19.4496179033       17.6061789788
  H         6.3624341801       18.5148577438       19.8828780147
  H         7.8206989638       14.8292650364       18.3144480456
  H         8.0478839064       15.8385469187       16.0080349964
  C         7.5722542133       16.0653591018       20.6003769757
  H         7.1867209074       15.0557629307       20.8011801137
  H         7.3775062956       16.7275696727       21.4166762377
  H         8.6394179487       15.8626963190       20.6340743177
  C         0.4355488493       12.3479378826       12.5174455131
  C         0.7265495904       11.7973609413       13.7968842496
  C        -0.6287208061       13.1860131846       12.3003889585
  C        -1.5321359849       13.4296897942       13.3505760966
  C        -1.3127158064       12.8728051156       14.5759085639
  C        -0.2251456964       12.0414107185       14.7724013995
  H        -0.1552278726       11.5338291090       15.7656898590
  H         1.5641853352       11.0636493896       13.9636765819
  H         1.1854842083       12.2043260146       11.7888094391
  H        -2.3728932112       14.1925313787       13.2367426486
  H        -2.0633076220       12.9847802198       15.3670607557
  C        -0.8988829465       13.7257639038       10.8840384930
  H        -0.0591365015       13.5478133044       10.2205797995
  H        -1.0528599940       14.7422350910       10.9190644318
  H        -1.8576830979       13.2949051657       10.4476757268
  C         1.7899188546       -0.3758033698       13.8040422604
  C         2.3691554374        0.7187641800       14.4261555857
  C         2.5498504880       -1.4777878458       13.3513166459
  C         3.9099314982       -1.4152458176       13.5943446298
  C         4.4757690413       -0.3385276017       14.2781217922
  C         3.7357288963        0.7179760131       14.7502641766
  H         4.3027159699        1.5742725064       15.2289952744
  H         1.7719310062        1.5375515342       14.7363332327
  H         0.8046902197       -0.4022425995       13.4841988533
  H         4.4478462006       -2.3909496857       13.2080556434
  H         5.5664746223       -0.4429014880       14.4681405083
  C         1.8589809624       -2.6542760652       12.7498216090
  H         2.0742167132       -3.5076071117       13.4224440792
  H         2.3083877149       -3.0187908151       11.7805933371
  H         0.7564228094       -2.6548119069       12.5775761675
  C        22.1761602016       17.7190420091        5.9755587546
  C        20.9781653656       17.7164571273        5.1473035377
  C        22.4973215890       16.6469341569        6.8119482057
  C        21.4920535186       15.6618420951        7.0298970164
  C        20.2875030200       15.7343736712        6.3118255042
  C        20.0148935875       16.7650296454        5.3395683840
  H        19.0488980184       16.8042830268        4.8947088745
  H        20.8373092104       18.5266016100        4.4279391332
  H        22.9751466759       18.4324710947        5.7890169851
  H        21.7294475929       14.8444716502        7.6813856227
  H        19.5215421962       15.0094202159        6.3842597181
  C        23.8788187562       16.5726748342        7.4289777747
  H        24.2017296837       17.5691635246        7.8048129551
  H        24.6652048706       16.2402469204        6.7436022325
  H        23.8709335262       15.8859904968        8.3093049698
  C         7.7145579214       12.7702231506        7.5307568147
  C         8.8167202317       13.6649114402        7.3053507268
  C         6.5857568796       13.2645661278        8.2814680554
  C         6.6683965126       14.4931706029        8.9464800880
  C         7.8258280815       15.2571511295        8.8111084119
  C         8.8433972426       14.9268877782        7.9435249742
  H         9.6286607689       15.6352156587        7.8693103898
  H         9.5387339395       13.2872820903        6.6152490010
  H         7.6716502661       11.8189865800        7.0463739483
  H         5.7797495657       14.8617071759        9.5662917241
  H         7.9439487203       16.2851464241        9.2572669459
  C         5.3536131119       12.4677496821        8.3709353698
  H         4.9716062749       12.2552599657        9.3573147491
  H         5.4080371737       11.5092738483        7.7333867256
  H         4.4881738220       12.9831433756        7.8461830038
  C         0.8393494621        7.4390723423        7.3454882628
  C         1.4427645749        8.5362233244        6.7875355502
  C         0.1436191060        7.5322740787        8.6061478047
  C         0.0787477268        8.7951914684        9.2228052559
  C         0.6520121435        9.9318334282        8.5771745117
  C         1.3620383076        9.8081191981        7.4195980462
  H         1.8182344517       10.7072965879        7.0848538609
  H         1.9580594983        8.4021967051        5.8804219766
  H         0.7865788970        6.5260315713        6.6976310170
  H        -0.2906195682        8.9940305545       10.2153765073
  H         0.5707049906       10.9307174170        9.0324893234
  C        -0.7044150022        6.3917519448        8.9801672694
  H        -1.7557858606        6.7602367307        8.8473213207
  H        -0.5380051798        6.0778234630       10.0634522994
  H        -0.6049723054        5.4539750373        8.4549803059
  C         1.5449694096        3.4641060049       -0.8176139433
  C         2.3904358264        2.5841012541       -1.5654049588
  C         1.8509548062        4.7964367556       -0.5575245141
  C         3.0908932869        5.3299813398       -1.0671295659
  C         3.9385120478        4.4768150408       -1.7699539318
  C         3.6471717096        3.0427234962       -1.9071413578
  H         4.3672817590        2.4265979088       -2.3645672053
  H         2.0479702423        1.5514767186       -1.8559133084
  H         0.6146242163        3.0782920803       -0.3179501615
  H         3.4008166111        6.3877122450       -0.8747371766
  H         4.9016166931        4.8152612527       -2.0682560885
  C         0.8124402788        5.5961058153        0.2902598480
  H         0.0044127233        5.7818109832       -0.4219337732
  H         1.1348524518        6.5123739317        0.7723596893
  H         0.3723245046        4.9545994258        1.0739533927
  C         4.7634387336       14.0512791064        2.3937418771
  C         4.5032987959       14.1202084100        1.0299644382
  C         5.9458377888       13.4645226759        2.8577732954
  C         6.8075848901       12.8124967626        1.9162854990
  C         6.4355556694       12.8398632787        0.5581096179
  C         5.3215831785       13.5528687012        0.0984232005
  H         5.0386131607       13.5398339686       -0.9595999897
  H         3.6623428082       14.6534797406        0.6726205011
  H         3.9468926740       14.3809177701        3.0600873314
  H         7.6578301920       12.2460269793        2.1821612640
  H         7.1276825425       12.3802832121       -0.0954949490
  C         6.2714475736       13.5585642819        4.3159780873
  H         6.2700606143       14.6064232594        4.6365179732
  H         7.3417706830       13.1204623952        4.5205764223
  H         5.5325398454       12.9922511614        4.9476676738
  C         3.2694653304        2.0919730223       10.0192859775
  C         2.9599120117        0.8283360875        9.5263601601
  C         2.8250685956        3.2498724307        9.3077423523
  C         2.3660131326        3.1170992856        8.0262457014
  C         2.3184992258        1.8111757684        7.4822168782
  C         2.4834771208        0.6733648433        8.2477177670
  H         2.2028046474       -0.3226550757        7.8339763540
  H         3.2063827907       -0.0879636057       10.1187643718
  H         3.7407133736        2.2126515117       11.0257794667
  H         2.0585336673        4.0320726877        7.4832621031
  H         2.0802204568        1.6748312674        6.4491314401
  C         2.7601259879        4.5591920089       10.1117285230
  H         3.6031780845        5.2194411309        9.8546919853
  H         2.8636756981        4.3114625921       11.1910536592
  H         1.7600056029        4.9755227076       10.0245432290
  C         5.0715453756       10.3525247245       17.6127968196
  C         5.3942621242        9.4181516906       18.6019095320
  C         5.4710756914       10.0895287622       16.2929874966
  C         6.0597693089        8.7865131022       16.0093652986
  C         6.2999660864        7.8996455531       17.0027799857
  C         5.9819400814        8.2130967845       18.3029905874
  H         6.1917599549        7.5575319543       19.1516549592
  H         5.1752533875        9.5955663784       19.7031816664
  H         4.5342983633       11.3258239516       17.7742680029
  H         6.4082716056        8.6081010949       15.0184732005
  H         6.9044065662        6.9573477662       16.8034587741
  C         5.1854593215       11.1002322381       15.1908645355
  H         4.4109588918       10.7008450884       14.4813780029
  H         6.0723916680       11.3275983498       14.5924996631
  H         4.8884547552       12.0901933672       15.5435444501
  C        12.3456353820        5.6260294269       -2.9037971686
  C        12.4083255954        4.2568172669       -3.1959054099
  C        13.5453017692        6.3461779027       -3.1843701072
  C        14.6034001938        5.7423168307       -3.8585722950
  C        14.6323502099        4.4200786470       -4.2268392949
  C        13.5006070807        3.6896130841       -3.8601804080
  H        13.5756927046        2.6289850972       -4.0543873319
  H        11.5661568970        3.6270906932       -2.9542866209
  H        11.5989602102        6.1484028009       -2.2991133674
  H        15.5266906380        6.3132539374       -3.8865563416
  H        15.3868163383        3.9545548060       -4.8625945231
  C        13.6812336341        7.6900558518       -2.5693285941
  H        13.0559089748        8.4207440191       -3.1782104444
  H        14.7546396677        8.0308634188       -2.5399004546
  H        13.3060950762        7.6238305464       -1.5529771981
  C         2.9645999726       -2.7422066603       21.6107002339
  C         3.4042829724       -1.4746014226       21.2117634340
  C         1.7143779271       -3.2147443152       21.1581411594
  C         0.9746608781       -2.4698670620       20.2562268379
  C         1.4878649896       -1.3298027379       19.7211967822
  C         2.6823142851       -0.8116104363       20.2048547301
  H         3.0062145736        0.1463886436       19.7905261393
  H         4.3334185246       -1.0767313520       21.5683349632
  H         3.6000195443       -3.3071715051       22.3497009252
  H         0.0107774121       -2.8756835729       19.7880870603
  H         0.9083331498       -0.8505812057       18.9603787624
  C         1.2399729013       -4.5675947582       21.6729925971
  H         0.9853917479       -4.5864543999       22.8000437140
  H         2.0684745511       -5.2932816985       21.6564758080
  H         0.2987747660       -5.0392360679       21.1160576122
  C        10.7968854171       13.2222196969        9.7940160476
  C        10.2437160951       13.8114152066       10.9542124595
  C        12.1874539474       12.8310587500        9.7074160933
  C        12.9166510628       12.8677785045       10.8652384900
  C        12.3951739053       13.4520448078       12.0155122970
  C        11.0359822681       13.8887824648       12.0730204080
  H        10.6933105559       14.3138420357       13.0461158461
  H         9.1699261983       14.0444872635       10.9261215445
  H        10.0237793132       13.0061555921        9.0263245535
  H        13.9592263180       12.6212554738       10.8745822313
  H        12.9885099226       13.6080035380       12.8630497950
  C        12.7530673765       12.3864933108        8.3799034142
  H        12.8645566968       13.2178315716        7.6728271071
  H        12.0334839937       11.6207248599        7.9729146043
  H        13.7392278893       11.7779096902        8.5413482857
  C        -4.8917678237       17.1332594797       16.7408357261
  C        -3.6965445201       17.0009800381       16.0220401489
  C        -5.5067259572       18.3785104309       16.8579065027
  C        -4.9492431797       19.5009460079       16.2161023139
  C        -3.7854431916       19.3991857080       15.4519642463
  C        -3.1890715514       18.1535037767       15.3327174760
  H        -2.2826130946       18.0604344648       14.8259442690
  H        -3.1767447069       16.0523586613       16.0388042148
  H        -5.3310724674       16.2838900161       17.2138620902
  H        -5.4162382687       20.4706850223       16.4000173335
  H        -3.2397026411       20.2361023048       14.9950736561
  C        -6.5446427728       18.5082835277       17.8997147320
  H        -6.4343856968       17.6576685208       18.6066818955
  H        -7.5626676160       18.4551777519       17.5651231571
  H        -6.5218425193       19.4287489011       18.5984349882
  C         8.3467042400       22.7344220868        7.5761817558
  C         9.7397077303       22.6238276340        7.3850022115
  C         7.5367673288       21.6546242928        8.0002564024
  C         8.2058033346       20.4223547524        8.1737812471
  C         9.5232826955       20.2475572212        7.7712991993
  C        10.3702590539       21.3743547195        7.4991608955
  H        11.4277518283       21.2724437249        7.4535206622
  H        10.3468153013       23.4551209650        7.1517968436
  H         7.8434105164       23.6571357187        7.2760904011
  H         7.6202452051       19.5581094923        8.4225873881
  H         9.9225801994       19.2333877076        7.8290267452
  C         6.0335882828       21.5057444821        8.0112591770
  H         5.5719626462       21.3026701901        7.0080541422
  H         5.5102973874       22.4024683507        8.3876245201
  H         5.7019037488       20.6657958466        8.6136616379
  C        25.9767442014        8.8576503490        3.3513131789
  C        25.5528795792        8.5830435732        2.0178658017
  C        25.2298821672        8.5246522296        4.4928255453
  C        24.1280161198        7.6489811404        4.1953015003
  C        23.7283344113        7.3545748683        2.8843274975
  C        24.4077745223        7.8865003322        1.7590927419
  H        24.0409135258        7.7645459663        0.7470054505
  H        26.1724090852        9.0507662421        1.1960974017
  H        26.8042340605        9.5206190206        3.4163214240
  H        23.4975923748        7.2665956349        5.0269502025
  H        22.9062582616        6.7080846063        2.7219989719
  C        25.6222881894        9.1243040044        5.8191114748
  H        24.7894958747        9.0171868725        6.5179804918
  H        25.9417867663       10.1657892811        5.6472305029
  H        26.5929420037        8.6462869516        6.1414856603
  C        17.0676625565        1.5730203388       17.8065766995
  C        17.2024080952        2.7272458718       16.9492002361
  C        17.9768598760        0.4956747686       17.6718996882
  C        19.0799144651        0.6576478932       16.7342440281
  C        19.3912028635        1.9196190048       16.2214221361
  C        18.3857199601        2.9296666205       16.2222501013
  H        18.4744645118        3.7983697456       15.6117450423
  H        16.4809467020        3.5137253045       16.9251610977
  H        16.2625155908        1.5672900014       18.5294966287
  H        19.7832931478       -0.1847414353       16.5899192590
  H        20.3217692533        2.1248466148       15.6266999337
  C        17.9883554265       -0.6245353289       18.5928604869
  H        18.2255261081       -0.2742075697       19.5607738357
  H        18.7108438849       -1.3763791689       18.3309351459
  H        16.9830816819       -1.1166907527       18.5578285558
  C         6.9063001069       26.0983760121        4.9407466489
  C         8.0114549430       26.1184045880        4.0655465299
  C         7.1226303852       26.4074041286        6.2825059228
  C         8.4306610314       26.6194813009        6.8154466950
  C         9.5331323698       26.4763837723        6.0125107144
  C         9.3413387035       26.1966569916        4.6242591220
  H        10.2522970266       26.1406147313        4.0243818060
  H         7.8610053930       26.0088351926        2.9740748888
  H         5.9142715495       25.8811446027        4.5032132197
  H         8.6119182603       26.9976601238        7.8384978010
  H        10.5062189579       26.6185432925        6.4806038869
  C         5.9290848640       26.3396753855        7.2810690129
  H         4.9319803563       26.3308451857        6.7358304242
  H         5.9465423307       27.1367619194        8.0312760098
  H         5.9816923267       25.3610392641        7.7449661955
  C        14.0333349645        3.2028623355        3.7975429908
  C        13.7086255472        1.9784664635        4.3902743507
  C        14.6327832758        3.3303820229        2.5060228536
  C        14.9185384814        2.0741814345        1.8187652036
  C        14.6467600681        0.8754882591        2.3845259095
  C        14.0309475920        0.8340342711        3.6497744895
  H        13.7037883950       -0.1048530680        4.1233542563
  H        13.2426686816        2.0160122481        5.3572359648
  H        13.8622776617        4.1123718922        4.3545154487
  H        15.5034407269        2.1504057796        0.8468929383
  H        14.8463939564       -0.0965021004        1.9140371016
  C        14.9011307517        4.6237677063        1.7040760103
  H        15.3243356409        5.4521594738        2.2600486310
  H        13.9991023768        5.0517771246        1.2402550459
  H        15.6443710553        4.4264622427        0.8844082152
  C        18.4726890066       10.5965705993        5.3777202712
  C        19.5878843538       11.3783808729        5.0854039603
  C        17.1386194855       11.1037142113        5.1767806940
  C        16.9859443145       12.3105960917        4.4923049149
  C        18.1325649370       13.1342453602        4.2521253600
  C        19.4042282196       12.6612459035        4.5636710655
  H        20.2170097348       13.3537032603        4.3497584873
  H        20.5843743618       10.8607535809        5.2416669277
  H        18.6679697390        9.6720128385        5.8915702997
  H        16.0989540106       12.7445109934        4.1422246670
  H        17.9887383798       14.1194602546        3.8262538701
  C        15.9522500178       10.2875016466        5.5493291737
  H        16.1241239421        9.7043444699        6.5180043470
  H        15.6508838927        9.5530943997        4.7969689218
  H        15.1425593892       11.0716552261        5.7576064585
  C        12.1983943792        2.5576115266       12.7039495016
  C        12.5169533477        1.4773882137       13.5541892369
  C        12.4941862842        2.4890123636       11.2808973817
  C        12.9844150689        1.2527647915       10.8047253541
  C        13.1363761916        0.1671409063       11.6634438941
  C        12.9271959584        0.2594313541       13.0217563790
  H        13.1916275991       -0.5647458420       13.7409007045
  H        12.4038852207        1.5328768205       14.6569469112
  H        11.8755120126        3.5428767498       13.1498100710
  H        13.2177614109        1.1805013212        9.7229232623
  H        13.4768724169       -0.7694285232       11.2728048121
  C        12.1963009934        3.5957903943       10.3162524477
  H        11.1970815775        3.4438910573        9.9563526262
  H        12.8633290282        3.5889651933        9.4717241528
  H        12.2386367835        4.6298625212       10.7567749417
  C         9.0352449254        4.5460487961       15.8882007700
  C         8.8746657322        3.6047809777       14.8896329234
  C         8.4204692722        4.4593048898       17.1190215994
  C         7.5272206162        3.3988683878       17.3678203715
  C         7.3858128764        2.3889053053       16.3945308413
  C         8.0385466771        2.5384696467       15.1693600876
  H         7.8828951566        1.8483072553       14.3355946964
  H         9.2947868863        3.7036205838       13.8892960719
  H         9.7691326592        5.3451949741       15.6431038207
  H         6.9820186292        3.2208083569       18.3136907885
  H         6.7687715861        1.5471865317       16.5668994288
  C         8.6867507068        5.4087291034       18.2802360886
  H         9.2970973650        6.1881845568       17.9635139370
  H         9.1320284633        4.8746449789       19.1200334629
  H         7.7982118169        5.9067601800       18.6513707571
  C        11.6604040678       16.8475158003       12.9401180554
  C        11.8444202374       16.9754094273       14.3041666865
  C        10.6040051416       17.4627222078       12.2040154980
  C         9.7176858762       18.2565222678       12.9341354625
  C         9.9011093030       18.4923079487       14.3503404128
  C        10.9732933735       17.8573659389       15.0096927205
  H        11.1461611595       18.0029207188       16.0567160967
  H        12.6737764099       16.4530172381       14.7850040247
  H        12.2882531191       16.1836380216       12.3247921443
  H         8.8790172692       18.7257136235       12.4041010317
  H         9.2112115359       19.2147153754       14.8555363699
  C        10.6395422948       17.1872029778       10.7581125469
  H         9.8847352996       16.4552252113       10.5222771333
  H        11.6207374090       16.8771187358       10.4836172690
  H        10.5363497259       18.0813210969       10.1294084126
  C         8.7777016715       17.0301237698       24.7162672277
  C         7.4315960129       17.3789681267       24.7648180024
  C         9.6986568637       18.0331382371       24.2395282797
  C         9.2506479889       19.2970767485       23.8435064432
  C         7.8849260934       19.5977275608       23.9066628163
  C         6.9943599415       18.6349863683       24.3000203676
  H         5.9114198963       18.7743704079       24.2278660520
  H         6.6232028550       16.7062075676       25.1796804277
  H         9.1128074048       16.0204608131       24.9969536179
  H         9.9542497896       20.0346391642       23.4987453882
  H         7.6176545931       20.6576923131       23.7007950709
  C        11.1277279175       17.6288034360       24.1433632892
  H        11.2327369251       16.6131976623       23.6577475200
  H        11.6725115119       17.6681872427       25.0787159406
  H        11.5076691650       18.3950988036       23.4571073158
 Cl        17.5239786833       10.9687892260        9.5698243918
 Cl        16.5487926417        9.2280296131        9.3775296805
 Cl         9.9320435888        9.4658511735        5.2074899810
 Cl        11.2920092241       10.8526975632        5.6502788769
 Cl         8.9529621472       10.3178513420       11.9664517578
 Cl         8.2602250447       10.1174626223       10.1288894232
 Cl        18.9429357291        2.2894785439        2.6088610802
 Cl        18.8534276823        0.3696370688        2.1964203970
 Cl        10.2726918156        9.3633277463       22.1515022467
 Cl        10.3265297565        9.7201399396       20.1560055822
 Cl        17.5395083589        9.2269615012       14.5148700886
 Cl        17.4558572425        8.6422112987       12.5294883223
 Cl         3.3746125029        5.0452673576       15.6812010355
 Cl         3.5455855405        6.2011849701       14.0328704955
 Cl         7.5678033573       13.7724033277       13.2359181356
 Cl         8.4832903413       15.7360795194       13.1216523479
 Cl        30.9367608023       17.9521332494        0.5907640496
 Cl        31.0217821597       16.0363962279        0.0189260848
 Cl         2.5862558611        1.0823707136        3.7350913590
 Cl         2.9538988941        2.6998767194        2.5977849728
 Cl         4.2559644761       10.2940630451       11.7593391674
 Cl         2.9076992177        9.6800790572       10.3644242532
 Cl        17.3087682874        1.1104226752        5.8695145642
 Cl        19.0157366923        1.8294666342        6.6998325269
 Cl        13.5186217088        8.0790156769       24.0758391892
 Cl        13.4290346089        7.8058630098       26.0483655721
 Cl        -4.9785793422       15.7774656091       13.4081450438
 Cl        -5.1957822335       16.4501652540       11.4730559938
 Cl         6.9245119198       21.2851266935       11.7887358895
 Cl         8.9436547236       21.4805225494       11.6130697787
